Tarefa1/STB32/STSB32/Leonardo_Contigencias_1a_Ordem.rel
CEPEL - Centro de Pesquisas de Energia Eletrica - ANAREDE V11.05.05

 Caso_Base_Leonardo_Confiabilidade_Primeira_Ordem                                

 CONTINGENCIA    1  PRIORIDADE  1 Contingência de 839 para 1047                 

 CIRCUITO da Barra   839 CASCAV-PR230  p/ Barra  1047 SOSORIO-230  Circ  1 (DESLIGAR)

 RELATORIO DE CONVERGENCIA

 OPCOES ATIVADAS: QLIM CTAP NEWT MOCT MOCG MOCF RCVG RMON RILH 80CO CSCA

 X-----------X------X------X---------------X---------------X---------------X--X
    ITERACAO          FREQ.  ERRO MAX BARRA  ERRO MAX BARRA  ERRO MAX  CONV    
  FC  P  Q  V  M.O.   (Hz)       MW    NUM.     Mvar   NUM.  TENSAO %  NUM. FM 
 X--X--X--X--X------X------X---------X-----X---------X-----X---------X-----X--X

      1  1    1.0000 60.000     29.53   839     39.02   839
      2  2    1.0000 60.000      0.09  1047      0.12   839
 ................................................................




 CONVERGENCIA FINAL

 X-----------X------X------X---------------X---------------X---------------X
    ITERACAO          FREQ. ERRO MAX BARRA  ERRO MAX BARRA  ERRO MAX  CONV  
  FC  P  Q  V  M.O.   (Hz)      MW    NUM.     Mvar   NUM.  TENSAO %  NUM.  
 X--X--X--X--X------X------X---------X-----X---------X-----X---------X-----X

   0                             0.00     0      0.00     0
      2  2  0 1.0000 60.000      0.00  2458      0.00  2458     0.000     0
CEPEL - Centro de Pesquisas de Energia Eletrica - ANAREDE V11.05.05

 Caso_Base_Leonardo_Confiabilidade_Primeira_Ordem                                

 CONTINGENCIA    1  PRIORIDADE  1 Contingência de 839 para 1047                 

 CIRCUITO da Barra   839 CASCAV-PR230  p/ Barra  1047 SOSORIO-230  Circ  1 (DESLIGAR)

 RELATORIO DE GERADOR * AREA   1 *                                  525

 X------------X------X-----------------------X----X------X-------X
     BARRA     TENSAO         GERACAO         LIM. PARTIC  BARRA
  NUM.    TIPO   MOD     MIN     MW      MAX   MW    GER  CONTROL
      NOME       ANG     MIN    Mvar     MAX  Mvar  EQUIV   MVA
 X------------X------X-------X-------X-------X----X------X-------X

    856      1  1.018     0.0   705.6  1260.0         0.0     856
  SEGRED-PR525   16.6  -465.0   -86.5   465.0         0.0   710.9
    897      1  1.015     0.0   693.6  1240.0         0.0     897
  SCAXIA-PR525   25.1  -465.0    -0.5   465.0         0.0   693.6
    933      1  1.012     0.0   934.4  1676.0         0.0     933
  AREIA--PR525   13.0  -800.0  -185.7   800.0         0.0   952.7
    955      2  1.010   -66.5   843.3  1760.0         0.0     955
  CNOVOS-SC525   -0.0  -450.0  -237.3   450.0         0.0   876.1
    995      1  1.020     0.0   809.6  1450.0         0.0     995
  ITA-----0425    3.3  -580.0   -38.8   580.0         0.0   810.5
   1030      1  1.016     0.0   631.9  1140.0         0.0    1030
  MACHAD-SC525    1.6  -570.0    -8.0   570.0         0.0   632.0
   1060      1  1.023     0.0   792.0  1420.0         0.0    1060
  SSANTI-PR525   17.7  -525.0    54.1   525.0         0.0   793.8




 RELATORIO DE GERADOR * AREA   2 *                                  230

 X------------X------X-----------------------X----X------X-------X
     BARRA     TENSAO         GERACAO         LIM. PARTIC  BARRA
  NUM.    TIPO   MOD     MIN     MW      MAX   MW    GER  CONTROL
      NOME       ANG     MIN    Mvar     MAX  Mvar  EQUIV   MVA
 X------------X------X-------X-------X-------X----X------X-------X

    963      1  1.000     0.0   129.6   360.0         0.0     963
  MCLARO-RS230   -7.5   -80.0   -65.4    80.0         0.0   145.2
   1010      1  1.020     0.0   395.2 99999.0         0.0    1010
  JLAC-B-SC230   -5.3  -220.0    29.8   220.0         0.0   396.3
   1041      1  1.000     0.0   128.8   226.0         0.0    1041
  PFUNDO-RS230    2.2  -130.0    17.1   130.0         0.0   129.9
   1047      1  1.020     0.0   617.6  1078.0         0.0    1047
  SOSORIO-230    21.8  -450.0    -9.4   450.0         0.0   617.7
CEPEL - Centro de Pesquisas de Energia Eletrica - ANAREDE V11.05.05

 Caso_Base_Leonardo_Confiabilidade_Primeira_Ordem                                

 CONTINGENCIA    1  PRIORIDADE  1 Contingência de 839 para 1047                 

 CIRCUITO da Barra   839 CASCAV-PR230  p/ Barra  1047 SOSORIO-230  Circ  1 (DESLIGAR)

 RELATORIO DE TOTAIS DE AREA

 X----X--------X--------X--------X--------X--------X--------X--------X--------X
  AREA  GERACAO  INJ EQV   CARGA   ELO CC    SHUNT   EXPORT   IMPORT   PERDAS
  NUM.    MW/      MW/      MW/      MW/     Mvar/     MW/      MW/      MW/
         Mvar     Mvar     Mvar     Mvar     EQUIV    Mvar     Mvar     Mvar
 X----X--------X--------X--------X--------X--------X--------X--------X--------X

     1   5410.5      0.0   3100.0      0.0      0.0   5463.3   3342.4    189.6
         -502.8      0.0    425.4      0.0      0.0   1497.5    142.6  -2283.1

     2   1271.2      0.0   7800.0      0.0     99.6      0.0   6604.6     75.8
          -27.9      0.0   1914.4      0.0      0.0    142.6   1258.4    115.6

     3      0.0      0.0  -4500.1      0.0      0.0   5129.1    645.4     16.3
            0.0      0.0   1111.5      0.0      0.0    358.0    597.1   -872.4

 TOTAL   6681.7      0.0   6399.9      0.0     99.6  10592.4  10592.4    281.7
         -530.7      0.0   3451.3      0.0      0.0   1998.1   1998.1  -3039.8


 MONITORACAO DE TENSAO

Não foram encontradas violações de tensao entre as barras monitoradas.


 MONITORACAO DE FLUXOS CORRIGIDOS PELA TENSAO - MFCT

 Não foram encontradas violações de fluxo entre os circuitos monitorados
CEPEL - Centro de Pesquisas de Energia Eletrica - ANAREDE V11.05.05

 Caso_Base_Leonardo_Confiabilidade_Primeira_Ordem                                

 CONTINGENCIA    2  PRIORIDADE  1 Contingência de 839 para 2458                 

 CIRCUITO da Barra   839 CASCAV-PR230  p/ Barra  2458 CASCOE-PR230 Circ  1 (DESLIGAR)

 RELATORIO DE CONVERGENCIA

 OPCOES ATIVADAS: QLIM CTAP NEWT MOCT MOCG MOCF RCVG RMON RILH 80CO CSCA

 X-----------X------X------X---------------X---------------X---------------X--X
    ITERACAO          FREQ.  ERRO MAX BARRA  ERRO MAX BARRA  ERRO MAX  CONV    
  FC  P  Q  V  M.O.   (Hz)       MW    NUM.     Mvar   NUM.  TENSAO %  NUM. FM 
 X--X--X--X--X------X------X---------X-----X---------X-----X---------X-----X--X

      1  1    1.0000 60.000     96.99  2458      4.86  2458
      2  2    1.0000 60.000      0.05   839      0.24  2458
 ................................................................




 CONVERGENCIA FINAL

 X-----------X------X------X---------------X---------------X---------------X
    ITERACAO          FREQ. ERRO MAX BARRA  ERRO MAX BARRA  ERRO MAX  CONV  
  FC  P  Q  V  M.O.   (Hz)      MW    NUM.     Mvar   NUM.  TENSAO %  NUM.  
 X--X--X--X--X------X------X---------X-----X---------X-----X---------X-----X

   0                             0.00     0      0.00     0
      2  2  0 1.0000 60.000      0.00   896      0.00  2458     0.000     0
CEPEL - Centro de Pesquisas de Energia Eletrica - ANAREDE V11.05.05

 Caso_Base_Leonardo_Confiabilidade_Primeira_Ordem                                

 CONTINGENCIA    2  PRIORIDADE  1 Contingência de 839 para 2458                 

 CIRCUITO da Barra   839 CASCAV-PR230  p/ Barra  2458 CASCOE-PR230 Circ  1 (DESLIGAR)

 RELATORIO DE GERADOR * AREA   1 *                                  525

 X------------X------X-----------------------X----X------X-------X
     BARRA     TENSAO         GERACAO         LIM. PARTIC  BARRA
  NUM.    TIPO   MOD     MIN     MW      MAX   MW    GER  CONTROL
      NOME       ANG     MIN    Mvar     MAX  Mvar  EQUIV   MVA
 X------------X------X-------X-------X-------X----X------X-------X

    856      1  1.018     0.0   705.6  1260.0         0.0     856
  SEGRED-PR525   16.6  -465.0   -86.8   465.0         0.0   710.9
    897      1  1.015     0.0   693.6  1240.0         0.0     897
  SCAXIA-PR525   25.1  -465.0   -26.1   465.0         0.0   694.1
    933      1  1.012     0.0   934.4  1676.0         0.0     933
  AREIA--PR525   13.0  -800.0  -187.2   800.0         0.0   953.0
    955      2  1.010   -66.5   844.0  1760.0         0.0     955
  CNOVOS-SC525   -0.0  -450.0  -237.4   450.0         0.0   876.7
    995      1  1.020     0.0   809.6  1450.0         0.0     995
  ITA-----0425    3.3  -580.0   -40.0   580.0         0.0   810.6
   1030      1  1.016     0.0   631.9  1140.0         0.0    1030
  MACHAD-SC525    1.6  -570.0    -8.1   570.0         0.0   632.0
   1060      1  1.023     0.0   792.0  1420.0         0.0    1060
  SSANTI-PR525   17.7  -525.0    47.7   525.0         0.0   793.4




 RELATORIO DE GERADOR * AREA   2 *                                  230

 X------------X------X-----------------------X----X------X-------X
     BARRA     TENSAO         GERACAO         LIM. PARTIC  BARRA
  NUM.    TIPO   MOD     MIN     MW      MAX   MW    GER  CONTROL
      NOME       ANG     MIN    Mvar     MAX  Mvar  EQUIV   MVA
 X------------X------X-------X-------X-------X----X------X-------X

    963      1  1.000     0.0   129.6   360.0         0.0     963
  MCLARO-RS230   -7.5   -80.0   -64.9    80.0         0.0   145.0
   1010      1  1.020     0.0   395.2 99999.0         0.0    1010
  JLAC-B-SC230   -5.3  -220.0    29.8   220.0         0.0   396.3
   1041      1  1.000     0.0   128.8   226.0         0.0    1041
  PFUNDO-RS230    2.4  -130.0    18.3   130.0         0.0   130.1
   1047      1  1.020     0.0   617.6  1078.0         0.0    1047
  SOSORIO-230    22.2  -450.0     9.7   450.0         0.0   617.7
CEPEL - Centro de Pesquisas de Energia Eletrica - ANAREDE V11.05.05

 Caso_Base_Leonardo_Confiabilidade_Primeira_Ordem                                

 CONTINGENCIA    2  PRIORIDADE  1 Contingência de 839 para 2458                 

 CIRCUITO da Barra   839 CASCAV-PR230  p/ Barra  2458 CASCOE-PR230 Circ  1 (DESLIGAR)

 RELATORIO DE TOTAIS DE AREA

 X----X--------X--------X--------X--------X--------X--------X--------X--------X
  AREA  GERACAO  INJ EQV   CARGA   ELO CC    SHUNT   EXPORT   IMPORT   PERDAS
  NUM.    MW/      MW/      MW/      MW/     Mvar/     MW/      MW/      MW/
         Mvar     Mvar     Mvar     Mvar     EQUIV    Mvar     Mvar     Mvar
 X----X--------X--------X--------X--------X--------X--------X--------X--------X

     1   5411.1      0.0   3100.0      0.0      0.0   5455.0   3333.2    189.2
         -538.1      0.0    425.4      0.0      0.0   1466.7    142.6  -2287.6

     2   1271.2      0.0   7800.0      0.0     99.5      0.0   6605.8     77.0
           -7.1      0.0   1914.4      0.0      0.0    142.6   1231.7    109.7

     3      0.0      0.0  -4500.1      0.0      0.0   5129.3    645.3     16.1
            0.0      0.0   1111.5      0.0      0.0    329.0    564.0   -876.5

 TOTAL   6682.3      0.0   6399.9      0.0     99.5  10584.3  10584.3    282.4
         -545.2      0.0   3451.3      0.0      0.0   1938.3   1938.3  -3054.3


 MONITORACAO DE TENSAO

Não foram encontradas violações de tensao entre as barras monitoradas.


 MONITORACAO DE FLUXOS CORRIGIDOS PELA TENSAO - MFCT

 Não foram encontradas violações de fluxo entre os circuitos monitorados
CEPEL - Centro de Pesquisas de Energia Eletrica - ANAREDE V11.05.05

 Caso_Base_Leonardo_Confiabilidade_Primeira_Ordem                                

 CONTINGENCIA    3  PRIORIDADE  1 Contingência de 856 para 933                  

 CIRCUITO da Barra   856 SEGRED-PR525  p/ Barra   933 AREIA--PR525 Circ  1 (DESLIGAR)

 RELATORIO DE CONVERGENCIA

 OPCOES ATIVADAS: QLIM CTAP NEWT MOCT MOCG MOCF RCVG RMON RILH 80CO CSCA

 X-----------X------X------X---------------X---------------X---------------X--X
    ITERACAO          FREQ.  ERRO MAX BARRA  ERRO MAX BARRA  ERRO MAX  CONV    
  FC  P  Q  V  M.O.   (Hz)       MW    NUM.     Mvar   NUM.  TENSAO %  NUM. FM 
 X--X--X--X--X------X------X---------X-----X---------X-----X---------X-----X--X

      1  1    1.0000 60.000    997.63   856      0.01   939
      2  2    1.0000 60.000      5.52   933     33.37   999
 ................................................................




 CONVERGENCIA FINAL

 X-----------X------X------X---------------X---------------X---------------X
    ITERACAO          FREQ. ERRO MAX BARRA  ERRO MAX BARRA  ERRO MAX  CONV  
  FC  P  Q  V  M.O.   (Hz)      MW    NUM.     Mvar   NUM.  TENSAO %  NUM.  
 X--X--X--X--X------X------X---------X-----X---------X-----X---------X-----X

   0                             0.00     0      0.00     0
      2  2  0 1.0000 60.000      0.01   933      0.00   999     0.000     0
CEPEL - Centro de Pesquisas de Energia Eletrica - ANAREDE V11.05.05

 Caso_Base_Leonardo_Confiabilidade_Primeira_Ordem                                

 CONTINGENCIA    3  PRIORIDADE  1 Contingência de 856 para 933                  

 CIRCUITO da Barra   856 SEGRED-PR525  p/ Barra   933 AREIA--PR525 Circ  1 (DESLIGAR)

 RELATORIO DE SHUNT COM CHAVEAMENTO AUTOMATICO

 X------------------X------------------X-----X--------------------X----X------X--X
     BARRA SHUNT      BARRA CONTROLADA         TENSAO CONTROLADA       SHUNT     
  NUM.      NOME     NUM.      NOME       TP  MINIMA ATUAL  MAXIMA CONT  Mvar  ST
 X-----X------------X-----X------------X-----X------X------X------X----X------X--X

    955 CNOVOS-SC525   955 CNOVOS-SC525 DISC   0.970  1.010  1.040 CENT   -0.0  
CEPEL - Centro de Pesquisas de Energia Eletrica - ANAREDE V11.05.05

 Caso_Base_Leonardo_Confiabilidade_Primeira_Ordem                                

 CONTINGENCIA    3  PRIORIDADE  1 Contingência de 856 para 933                  

 CIRCUITO da Barra   856 SEGRED-PR525  p/ Barra   933 AREIA--PR525 Circ  1 (DESLIGAR)

 RELATORIO DE GERADOR * AREA   1 *                                  525

 X------------X------X-----------------------X----X------X-------X
     BARRA     TENSAO         GERACAO         LIM. PARTIC  BARRA
  NUM.    TIPO   MOD     MIN     MW      MAX   MW    GER  CONTROL
      NOME       ANG     MIN    Mvar     MAX  Mvar  EQUIV   MVA
 X------------X------X-------X-------X-------X----X------X-------X

    856      1  1.018     0.0   705.6  1260.0         0.0     856
  SEGRED-PR525   25.0  -465.0  -150.6   465.0         0.0   721.5
    897      1  1.015     0.0   693.6  1240.0         0.0     897
  SCAXIA-PR525   28.6  -465.0   -29.4   465.0         0.0   694.2
    933      1  1.012     0.0   934.4  1676.0         0.0     933
  AREIA--PR525    9.5  -800.0   -66.4   800.0         0.0   936.8
    955      2  1.010   -66.5   868.9  1760.0         0.0     955
  CNOVOS-SC525   -0.0  -450.0  -307.1   450.0         0.0   921.6
    995      1  1.020     0.0   809.6  1450.0         0.0     995
  ITA-----0425    5.1  -580.0   131.6   580.0         0.0   820.2
   1030      1  1.016     0.0   631.9  1140.0         0.0    1030
  MACHAD-SC525    2.0  -570.0     9.6   570.0         0.0   632.0
   1060      1  1.023     0.0   792.0  1420.0         0.0    1060
  SSANTI-PR525   22.3  -525.0   191.4   525.0         0.0   814.8




 RELATORIO DE GERADOR * AREA   2 *                                  230

 X------------X------X-----------------------X----X------X-------X
     BARRA     TENSAO         GERACAO         LIM. PARTIC  BARRA
  NUM.    TIPO   MOD     MIN     MW      MAX   MW    GER  CONTROL
      NOME       ANG     MIN    Mvar     MAX  Mvar  EQUIV   MVA
 X------------X------X-------X-------X-------X----X------X-------X

    963      1  1.000     0.0   129.6   360.0         0.0     963
  MCLARO-RS230   -6.7   -80.0   -64.7    80.0         0.0   144.9
   1010      1  1.020     0.0   395.2 99999.0         0.0    1010
  JLAC-B-SC230   -5.7  -220.0    29.7   220.0         0.0   396.3
   1041      1  1.000     0.0   128.8   226.0         0.0    1041
  PFUNDO-RS230    3.3  -130.0    18.8   130.0         0.0   130.2
   1047      1  1.020     0.0   617.6  1078.0         0.0    1047
  SOSORIO-230    23.2  -450.0    28.4   450.0         0.0   618.3
CEPEL - Centro de Pesquisas de Energia Eletrica - ANAREDE V11.05.05

 Caso_Base_Leonardo_Confiabilidade_Primeira_Ordem                                

 CONTINGENCIA    3  PRIORIDADE  1 Contingência de 856 para 933                  

 CIRCUITO da Barra   856 SEGRED-PR525  p/ Barra   933 AREIA--PR525 Circ  1 (DESLIGAR)

 RELATORIO DE TOTAIS DE AREA

 X----X--------X--------X--------X--------X--------X--------X--------X--------X
  AREA  GERACAO  INJ EQV   CARGA   ELO CC    SHUNT   EXPORT   IMPORT   PERDAS
  NUM.    MW/      MW/      MW/      MW/     Mvar/     MW/      MW/      MW/
         Mvar     Mvar     Mvar     Mvar     EQUIV    Mvar     Mvar     Mvar
 X----X--------X--------X--------X--------X--------X--------X--------X--------X

     1   5436.0      0.0   3100.0      0.0      0.0   5304.3   3161.8    193.6
         -220.9      0.0    425.4      0.0      0.0   1650.5    142.2  -2154.7

     2   1271.2      0.0   7800.0      0.0     99.5      0.0   6612.5     83.7
           12.1      0.0   1914.4      0.0      0.0    142.2   1249.7    147.7

     3      0.0      0.0  -4500.0      0.0      0.0   5048.1    578.0     29.9
            0.0      0.0   1111.5      0.0      0.0    326.4    727.2   -710.6

 TOTAL   6707.2      0.0   6400.0      0.0     99.5  10352.3  10352.3    307.2
         -208.8      0.0   3451.3      0.0      0.0   2119.1   2119.1  -2717.6


 MONITORACAO DE TENSAO

Não foram encontradas violações de tensao entre as barras monitoradas.


 MONITORACAO DE FLUXOS CORRIGIDOS PELA TENSAO - MFCT

 Não foram encontradas violações de fluxo entre os circuitos monitorados
CEPEL - Centro de Pesquisas de Energia Eletrica - ANAREDE V11.05.05

 Caso_Base_Leonardo_Confiabilidade_Primeira_Ordem                                

 CONTINGENCIA    4  PRIORIDADE  1 Contingência de 856 para 1060                 

 CIRCUITO da Barra   856 SEGRED-PR525  p/ Barra  1060 SSANTI-PR525 Circ  1 (DESLIGAR)

 RELATORIO DE CONVERGENCIA

 OPCOES ATIVADAS: QLIM CTAP NEWT MOCT MOCG MOCF RCVG RMON RILH 80CO CSCA

 X-----------X------X------X---------------X---------------X---------------X--X
    ITERACAO          FREQ.  ERRO MAX BARRA  ERRO MAX BARRA  ERRO MAX  CONV    
  FC  P  Q  V  M.O.   (Hz)       MW    NUM.     Mvar   NUM.  TENSAO %  NUM. FM 
 X--X--X--X--X------X------X---------X-----X---------X-----X---------X-----X--X

      1  1    1.0000 60.000    292.45  1060      0.01   939
      2  2    1.0000 60.000      0.77   933      2.85   999
 ................................................................




 CONVERGENCIA FINAL

 X-----------X------X------X---------------X---------------X---------------X
    ITERACAO          FREQ. ERRO MAX BARRA  ERRO MAX BARRA  ERRO MAX  CONV  
  FC  P  Q  V  M.O.   (Hz)      MW    NUM.     Mvar   NUM.  TENSAO %  NUM.  
 X--X--X--X--X------X------X---------X-----X---------X-----X---------X-----X

   0                             0.00     0      0.00     0
      2  2  0 1.0000 60.000      0.00   933      0.00   999     0.000     0
CEPEL - Centro de Pesquisas de Energia Eletrica - ANAREDE V11.05.05

 Caso_Base_Leonardo_Confiabilidade_Primeira_Ordem                                

 CONTINGENCIA    4  PRIORIDADE  1 Contingência de 856 para 1060                 

 CIRCUITO da Barra   856 SEGRED-PR525  p/ Barra  1060 SSANTI-PR525 Circ  1 (DESLIGAR)

 RELATORIO DE SHUNT COM CHAVEAMENTO AUTOMATICO

 X------------------X------------------X-----X--------------------X----X------X--X
     BARRA SHUNT      BARRA CONTROLADA         TENSAO CONTROLADA       SHUNT     
  NUM.      NOME     NUM.      NOME       TP  MINIMA ATUAL  MAXIMA CONT  Mvar  ST
 X-----X------------X-----X------------X-----X------X------X------X----X------X--X

    955 CNOVOS-SC525   955 CNOVOS-SC525 DISC   0.970  1.010  1.040 CENT   -0.0  
    995 ITA-----0425   995 ITA-----0425 DISC   0.970  1.020  1.040 CENT   -0.0  
CEPEL - Centro de Pesquisas de Energia Eletrica - ANAREDE V11.05.05

 Caso_Base_Leonardo_Confiabilidade_Primeira_Ordem                                

 CONTINGENCIA    4  PRIORIDADE  1 Contingência de 856 para 1060                 

 CIRCUITO da Barra   856 SEGRED-PR525  p/ Barra  1060 SSANTI-PR525 Circ  1 (DESLIGAR)

 RELATORIO DE GERADOR * AREA   1 *                                  525

 X------------X------X-----------------------X----X------X-------X
     BARRA     TENSAO         GERACAO         LIM. PARTIC  BARRA
  NUM.    TIPO   MOD     MIN     MW      MAX   MW    GER  CONTROL
      NOME       ANG     MIN    Mvar     MAX  Mvar  EQUIV   MVA
 X------------X------X-------X-------X-------X----X------X-------X

    856      1  1.018     0.0   705.6  1260.0         0.0     856
  SEGRED-PR525   14.5  -465.0    13.5   465.0         0.0   705.7
    897      1  1.015     0.0   693.6  1240.0         0.0     897
  SCAXIA-PR525   26.1  -465.0   -30.6   465.0         0.0   694.3
    933      1  1.012     0.0   934.4  1676.0         0.0     933
  AREIA--PR525   12.0  -800.0  -208.0   800.0         0.0   957.3
    955      2  1.010   -66.5   847.0  1760.0         0.0     955
  CNOVOS-SC525   -0.0  -450.0  -260.9   450.0         0.0   886.3
    995      1  1.020     0.0   809.6  1450.0         0.0     995
  ITA-----0425    3.8  -580.0     6.8   580.0         0.0   809.6
   1030      1  1.016     0.0   631.9  1140.0         0.0    1030
  MACHAD-SC525    1.7  -570.0    -3.8   570.0         0.0   631.9
   1060      1  1.023     0.0   792.0  1420.0         0.0    1060
  SSANTI-PR525   19.0  -525.0    45.5   525.0         0.0   793.3




 RELATORIO DE GERADOR * AREA   2 *                                  230

 X------------X------X-----------------------X----X------X-------X
     BARRA     TENSAO         GERACAO         LIM. PARTIC  BARRA
  NUM.    TIPO   MOD     MIN     MW      MAX   MW    GER  CONTROL
      NOME       ANG     MIN    Mvar     MAX  Mvar  EQUIV   MVA
 X------------X------X-------X-------X-------X----X------X-------X

    963      1  1.000     0.0   129.6   360.0         0.0     963
  MCLARO-RS230   -7.2   -80.0   -64.7    80.0         0.0   144.9
   1010      1  1.020     0.0   395.2 99999.0         0.0    1010
  JLAC-B-SC230   -5.4  -220.0    29.7   220.0         0.0   396.3
   1041      1  1.000     0.0   128.8   226.0         0.0    1041
  PFUNDO-RS230    2.7  -130.0    18.9   130.0         0.0   130.2
   1047      1  1.020     0.0   617.6  1078.0         0.0    1047
  SOSORIO-230    22.6  -450.0    13.6   450.0         0.0   617.7
CEPEL - Centro de Pesquisas de Energia Eletrica - ANAREDE V11.05.05

 Caso_Base_Leonardo_Confiabilidade_Primeira_Ordem                                

 CONTINGENCIA    4  PRIORIDADE  1 Contingência de 856 para 1060                 

 CIRCUITO da Barra   856 SEGRED-PR525  p/ Barra  1060 SSANTI-PR525 Circ  1 (DESLIGAR)

 RELATORIO DE TOTAIS DE AREA

 X----X--------X--------X--------X--------X--------X--------X--------X--------X
  AREA  GERACAO  INJ EQV   CARGA   ELO CC    SHUNT   EXPORT   IMPORT   PERDAS
  NUM.    MW/      MW/      MW/      MW/     Mvar/     MW/      MW/      MW/
         Mvar     Mvar     Mvar     Mvar     EQUIV    Mvar     Mvar     Mvar
 X----X--------X--------X--------X--------X--------X--------X--------X--------X

     1   5414.1      0.0   3100.0      0.0      0.0   5408.5   3281.8    187.5
         -437.6      0.0    425.4      0.0      0.0   1503.0    142.3  -2223.7

     2   1271.2      0.0   7800.0      0.0     99.5      0.0   6607.6     78.8
           -2.6      0.0   1914.4      0.0      0.0    142.3   1235.1    118.1

     3      0.0      0.0  -4500.1      0.0      0.0   5107.0    626.0     19.1
            0.0      0.0   1111.5      0.0      0.0    326.7    594.5   -843.6

 TOTAL   6685.3      0.0   6399.9      0.0     99.5  10515.5  10515.5    285.4
         -440.1      0.0   3451.3      0.0      0.0   1971.9   1971.9  -2949.2


 MONITORACAO DE TENSAO

Não foram encontradas violações de tensao entre as barras monitoradas.


 MONITORACAO DE FLUXOS CORRIGIDOS PELA TENSAO - MFCT

 Não foram encontradas violações de fluxo entre os circuitos monitorados
CEPEL - Centro de Pesquisas de Energia Eletrica - ANAREDE V11.05.05

 Caso_Base_Leonardo_Confiabilidade_Primeira_Ordem                                

 CONTINGENCIA    5  PRIORIDADE  1 Contingência de 896 para 897                  

 CIRCUITO da Barra   896 CASCOE-PR525  p/ Barra   897 SCAXIA-PR525 Circ  1 (DESLIGAR)

 RELATORIO DE CONVERGENCIA

 OPCOES ATIVADAS: QLIM CTAP NEWT MOCT MOCG MOCF RCVG RMON RILH 80CO CSCA

 X-----------X------X------X---------------X---------------X---------------X--X
    ITERACAO          FREQ.  ERRO MAX BARRA  ERRO MAX BARRA  ERRO MAX  CONV    
  FC  P  Q  V  M.O.   (Hz)       MW    NUM.     Mvar   NUM.  TENSAO %  NUM. FM 
 X--X--X--X--X------X------X---------X-----X---------X-----X---------X-----X--X

      1  1    1.0000 60.000    433.36   896    176.53   896
      2  2    1.0000 60.000     17.86   999     19.27   999
      3  3    1.0000 60.000      0.23   896      0.03  2458
      4  4    1.0000 60.000     11.89   896     81.17   896
      5  5    1.0000 60.000      1.70   896     34.39   896
 ................................................................




 CONVERGENCIA FINAL

 X-----------X------X------X---------------X---------------X---------------X
    ITERACAO          FREQ. ERRO MAX BARRA  ERRO MAX BARRA  ERRO MAX  CONV  
  FC  P  Q  V  M.O.   (Hz)      MW    NUM.     Mvar   NUM.  TENSAO %  NUM.  
 X--X--X--X--X------X------X---------X-----X---------X-----X---------X-----X

   0                             0.00     0      0.00     0
      5  5  0 1.0000 60.000      0.00  2458      0.00   896     0.000     0
CEPEL - Centro de Pesquisas de Energia Eletrica - ANAREDE V11.05.05

 Caso_Base_Leonardo_Confiabilidade_Primeira_Ordem                                

 CONTINGENCIA    5  PRIORIDADE  1 Contingência de 896 para 897                  

 CIRCUITO da Barra   896 CASCOE-PR525  p/ Barra   897 SCAXIA-PR525 Circ  1 (DESLIGAR)

 RELATORIO DE SHUNT COM CHAVEAMENTO AUTOMATICO

 X------------------X------------------X-----X--------------------X----X------X--X
     BARRA SHUNT      BARRA CONTROLADA         TENSAO CONTROLADA       SHUNT     
  NUM.      NOME     NUM.      NOME       TP  MINIMA ATUAL  MAXIMA CONT  Mvar  ST
 X-----X------------X-----X------------X-----X------X------X------X----X------X--X

    955 CNOVOS-SC525   955 CNOVOS-SC525 DISC   0.970  1.010  1.040 CENT   -0.0  
    995 ITA-----0425   995 ITA-----0425 DISC   0.970  1.020  1.040 CENT   -0.0  
CEPEL - Centro de Pesquisas de Energia Eletrica - ANAREDE V11.05.05

 Caso_Base_Leonardo_Confiabilidade_Primeira_Ordem                                

 CONTINGENCIA    5  PRIORIDADE  1 Contingência de 896 para 897                  

 CIRCUITO da Barra   896 CASCOE-PR525  p/ Barra   897 SCAXIA-PR525 Circ  1 (DESLIGAR)

 RELATORIO DE GERADOR * AREA   1 *                                  525

 X------------X------X-----------------------X----X------X-------X
     BARRA     TENSAO         GERACAO         LIM. PARTIC  BARRA
  NUM.    TIPO   MOD     MIN     MW      MAX   MW    GER  CONTROL
      NOME       ANG     MIN    Mvar     MAX  Mvar  EQUIV   MVA
 X------------X------X-------X-------X-------X----X------X-------X

    856      1  1.018     0.0   705.6  1260.0         0.0     856
  SEGRED-PR525   16.4  -465.0   -94.0   465.0         0.0   711.8
    897      1  1.015     0.0   693.6  1240.0         0.0     897
  SCAXIA-PR525   21.6  -465.0  -153.4   465.0         0.0   710.4
    933      1  1.012     0.0   934.4  1676.0         0.0     933
  AREIA--PR525   13.1  -800.0   -24.6   800.0         0.0   934.7
    955      2  1.010   -66.5   863.5  1760.0         0.0     955
  CNOVOS-SC525   -0.0  -450.0  -236.4   450.0         0.0   895.3
    995      1  1.020     0.0   809.6  1450.0         0.0     995
  ITA-----0425    3.0  -580.0   -65.4   580.0         0.0   812.2
   1030      1  1.016     0.0   631.9  1140.0         0.0    1030
  MACHAD-SC525    1.5  -570.0    -9.7   570.0         0.0   632.0
   1060      1  1.023     0.0   792.0  1420.0         0.0    1060
  SSANTI-PR525   17.1  -525.0   271.4   525.0         0.0   837.2




 RELATORIO DE GERADOR * AREA   2 *                                  230

 X------------X------X-----------------------X----X------X-------X
     BARRA     TENSAO         GERACAO         LIM. PARTIC  BARRA
  NUM.    TIPO   MOD     MIN     MW      MAX   MW    GER  CONTROL
      NOME       ANG     MIN    Mvar     MAX  Mvar  EQUIV   MVA
 X------------X------X-------X-------X-------X----X------X-------X

    963      1  1.000     0.0   129.6   360.0         0.0     963
  MCLARO-RS230   -7.1   -80.0   -58.5    80.0         0.0   142.2
   1010      1  1.020     0.0   395.2 99999.0         0.0    1010
  JLAC-B-SC230   -5.2  -220.0    30.2   220.0         0.0   396.4
   1041      1  1.000     0.0   128.8   226.0         0.0    1041
  PFUNDO-RS230    4.4  -130.0    33.6   130.0         0.0   133.1
   1047      1  1.020     0.0   617.6  1078.0         0.0    1047
  SOSORIO-230    26.2  -450.0    43.2   450.0         0.0   619.1
CEPEL - Centro de Pesquisas de Energia Eletrica - ANAREDE V11.05.05

 Caso_Base_Leonardo_Confiabilidade_Primeira_Ordem                                

 CONTINGENCIA    5  PRIORIDADE  1 Contingência de 896 para 897                  

 CIRCUITO da Barra   896 CASCOE-PR525  p/ Barra   897 SCAXIA-PR525 Circ  1 (DESLIGAR)

 RELATORIO DE TOTAIS DE AREA

 X----X--------X--------X--------X--------X--------X--------X--------X--------X
  AREA  GERACAO  INJ EQV   CARGA   ELO CC    SHUNT   EXPORT   IMPORT   PERDAS
  NUM.    MW/      MW/      MW/      MW/     Mvar/     MW/      MW/      MW/
         Mvar     Mvar     Mvar     Mvar     EQUIV    Mvar     Mvar     Mvar
 X----X--------X--------X--------X--------X--------X--------X--------X--------X

     1   5430.6      0.0   3100.0      0.0      0.0   5362.2   3210.6    179.0
         -312.1      0.0    425.4      0.0      0.0   1836.3    142.7  -2431.1

     2   1271.2      0.0   7800.0      0.0     98.9      0.0   6620.8     92.0
           48.5      0.0   1914.4      0.0      0.0    142.7   1271.4    203.9

     3      0.0      0.0  -4499.6      0.0      0.0   5116.1    646.9     30.4
            0.0      0.0   1111.5      0.0      0.0    336.5    901.4   -546.6

 TOTAL   6701.8      0.0   6400.4      0.0     98.9  10478.3  10478.3    301.4
         -263.6      0.0   3451.3      0.0      0.0   2315.4   2315.4  -2773.7
CEPEL - Centro de Pesquisas de Energia Eletrica - ANAREDE V11.05.05

 Caso_Base_Leonardo_Confiabilidade_Primeira_Ordem                                

 CONTINGENCIA    5  PRIORIDADE  1 Contingência de 896 para 897                  

 CIRCUITO da Barra   896 CASCOE-PR525  p/ Barra   897 SCAXIA-PR525 Circ  1 (DESLIGAR)

 MONITORACAO DE TENSAO

 X----------------------X--------------------X--------X--------X--------X---------------X
           BARRA                TENSAO        VIOLACAO SHUNTBAR SHUNTLIN    SEVERIDADE
   NUM.     NOME     ARE   MIN    MOD.   MAX    (PU)    (Mvar)   (Mvar)
 X-----X------------X---X------X------X------X--------X--------X--------X---------------X

    896 CASCOE-PR525   3  0.950  0.918  1.050   -0.032                   ****

 ------ IND SEVER.      10.0 -------


 MONITORACAO DE FLUXOS CORRIGIDOS PELA TENSAO - MFCT

 Não foram encontradas violações de fluxo entre os circuitos monitorados
CEPEL - Centro de Pesquisas de Energia Eletrica - ANAREDE V11.05.05

 Caso_Base_Leonardo_Confiabilidade_Primeira_Ordem                                

 CONTINGENCIA    6  PRIORIDADE  1 Contingência de 933 para 895                  

 CIRCUITO da Barra   933 AREIA--PR525  p/ Barra   895 BATEIA-PR525 Circ  1 (DESLIGAR)

 RELATORIO DE CONVERGENCIA

 OPCOES ATIVADAS: QLIM CTAP NEWT MOCT MOCG MOCF RCVG RMON RILH 80CO CSCA

 X-----------X------X------X---------------X---------------X---------------X--X
    ITERACAO          FREQ.  ERRO MAX BARRA  ERRO MAX BARRA  ERRO MAX  CONV    
  FC  P  Q  V  M.O.   (Hz)       MW    NUM.     Mvar   NUM.  TENSAO %  NUM. FM 
 X--X--X--X--X------X------X---------X-----X---------X-----X---------X-----X--X

      1  1    1.0000 60.000    653.73   933    120.51   895
      2  2    1.0000 60.000     14.92   933     25.93   959
      3  3    1.0000 60.000      0.23   895      0.03   939
      4  4    1.0000 60.000      3.31  1015     50.36   895
      5  5    1.0000 60.000      9.47   895     11.31   814
      6  6    1.0000 60.000      0.08   895      0.04   814
      7  7    1.0000 60.000      0.00   814     14.17  -814
 ................................................................




 CONVERGENCIA FINAL

 X-----------X------X------X---------------X---------------X---------------X
    ITERACAO          FREQ. ERRO MAX BARRA  ERRO MAX BARRA  ERRO MAX  CONV  
  FC  P  Q  V  M.O.   (Hz)      MW    NUM.     Mvar   NUM.  TENSAO %  NUM.  
 X--X--X--X--X------X------X---------X-----X---------X-----X---------X-----X

   0                             0.00     0      0.00     0
      7  7  0 1.0000 60.000      0.05   895      0.05   814     0.000     0
CEPEL - Centro de Pesquisas de Energia Eletrica - ANAREDE V11.05.05

 Caso_Base_Leonardo_Confiabilidade_Primeira_Ordem                                

 CONTINGENCIA    6  PRIORIDADE  1 Contingência de 933 para 895                  

 CIRCUITO da Barra   933 AREIA--PR525  p/ Barra   895 BATEIA-PR525 Circ  1 (DESLIGAR)

 RELATORIO DE SHUNT COM CHAVEAMENTO AUTOMATICO

 X------------------X------------------X-----X--------------------X----X------X--X
     BARRA SHUNT      BARRA CONTROLADA         TENSAO CONTROLADA       SHUNT     
  NUM.      NOME     NUM.      NOME       TP  MINIMA ATUAL  MAXIMA CONT  Mvar  ST
 X-----X------------X-----X------------X-----X------X------X------X----X------X--X

    814 BATEIAS-230    895 BATEIA-PR525 DISC   0.960  0.984  1.020 CENT  150.0  
    955 CNOVOS-SC525   955 CNOVOS-SC525 DISC   0.970  1.010  1.040 CENT   -0.0  
CEPEL - Centro de Pesquisas de Energia Eletrica - ANAREDE V11.05.05

 Caso_Base_Leonardo_Confiabilidade_Primeira_Ordem                                

 CONTINGENCIA    6  PRIORIDADE  1 Contingência de 933 para 895                  

 CIRCUITO da Barra   933 AREIA--PR525  p/ Barra   895 BATEIA-PR525 Circ  1 (DESLIGAR)

 RELATORIO DE GERADOR * AREA   1 *                                  525

 X------------X------X-----------------------X----X------X-------X
     BARRA     TENSAO         GERACAO         LIM. PARTIC  BARRA
  NUM.    TIPO   MOD     MIN     MW      MAX   MW    GER  CONTROL
      NOME       ANG     MIN    Mvar     MAX  Mvar  EQUIV   MVA
 X------------X------X-------X-------X-------X----X------X-------X

    856      1  1.018     0.0   705.6  1260.0         0.0     856
  SEGRED-PR525   18.0  -465.0   -92.2   465.0         0.0   711.6
    897      1  1.015     0.0   693.6  1240.0         0.0     897
  SCAXIA-PR525   26.2  -465.0   -27.7   465.0         0.0   694.2
    933      1  1.012     0.0   934.4  1676.0         0.0     933
  AREIA--PR525   14.7  -800.0     2.0   800.0         0.0   934.4
    955      2  1.010   -66.5   859.0  1760.0         0.0     955
  CNOVOS-SC525   -0.0  -450.0  -127.6   450.0         0.0   868.4
    995      1  1.020     0.0   809.6  1450.0         0.0     995
  ITA-----0425    3.7  -580.0    -0.9   580.0         0.0   809.6
   1030      1  1.016     0.0   631.9  1140.0         0.0    1030
  MACHAD-SC525    1.7  -570.0    -4.7   570.0         0.0   631.9
   1060      1  1.023     0.0   792.0  1420.0         0.0    1060
  SSANTI-PR525   18.8  -525.0    72.3   525.0         0.0   795.3




 RELATORIO DE GERADOR * AREA   2 *                                  230

 X------------X------X-----------------------X----X------X-------X
     BARRA     TENSAO         GERACAO         LIM. PARTIC  BARRA
  NUM.    TIPO   MOD     MIN     MW      MAX   MW    GER  CONTROL
      NOME       ANG     MIN    Mvar     MAX  Mvar  EQUIV   MVA
 X------------X------X-------X-------X-------X----X------X-------X

    963      1  1.000     0.0   129.6   360.0         0.0     963
  MCLARO-RS230   -7.2   -80.0   -63.2    80.0         0.0   144.2
   1010      1  1.020     0.0   395.2 99999.0         0.0    1010
  JLAC-B-SC230   -6.6  -220.0    29.7   220.0         0.0   396.3
   1041      1  1.000     0.0   128.8   226.0         0.0    1041
  PFUNDO-RS230    3.1  -130.0    22.3   130.0         0.0   130.7
   1047      1  1.020     0.0   617.6  1078.0         0.0    1047
  SOSORIO-230    23.5  -450.0    12.6   450.0         0.0   617.7
CEPEL - Centro de Pesquisas de Energia Eletrica - ANAREDE V11.05.05

 Caso_Base_Leonardo_Confiabilidade_Primeira_Ordem                                

 CONTINGENCIA    6  PRIORIDADE  1 Contingência de 933 para 895                  

 CIRCUITO da Barra   933 AREIA--PR525  p/ Barra   895 BATEIA-PR525 Circ  1 (DESLIGAR)

 RELATORIO DE TOTAIS DE AREA

 X----X--------X--------X--------X--------X--------X--------X--------X--------X
  AREA  GERACAO  INJ EQV   CARGA   ELO CC    SHUNT   EXPORT   IMPORT   PERDAS
  NUM.    MW/      MW/      MW/      MW/     Mvar/     MW/      MW/      MW/
         Mvar     Mvar     Mvar     Mvar     EQUIV    Mvar     Mvar     Mvar
 X----X--------X--------X--------X--------X--------X--------X--------X--------X

     1   5426.1      0.0   3100.0      0.0      0.0   4806.5   2682.9    202.5
         -178.8      0.0    425.4      0.0      0.0   1312.0    142.1  -1774.1

     2   1271.2      0.0   7800.0      0.0     99.4      0.0   6608.3     79.5
            1.4      0.0   1914.4      0.0      0.0    197.4   1140.9    122.8

     3      0.0      0.0  -4500.1      0.0      0.0   4484.7      0.0     15.4
            0.0      0.0   1111.5      0.0      0.0    233.0    459.5   -885.0

 TOTAL   6697.3      0.0   6399.9      0.0     99.4   9291.1   9291.1    297.4
         -177.4      0.0   3451.3      0.0      0.0   1742.5   1742.5  -2536.3


 MONITORACAO DE TENSAO

Não foram encontradas violações de tensao entre as barras monitoradas.


 MONITORACAO DE FLUXOS CORRIGIDOS PELA TENSAO - MFCT

 Não foram encontradas violações de fluxo entre os circuitos monitorados
CEPEL - Centro de Pesquisas de Energia Eletrica - ANAREDE V11.05.05

 Caso_Base_Leonardo_Confiabilidade_Primeira_Ordem                                

 CONTINGENCIA    7  PRIORIDADE  1 Contingência de 933 para 955                  

 CIRCUITO da Barra   933 AREIA--PR525  p/ Barra   955 CNOVOS-SC525 Circ  1 (DESLIGAR)

 RELATORIO DE CONVERGENCIA

 OPCOES ATIVADAS: QLIM CTAP NEWT MOCT MOCG MOCF RCVG RMON RILH 80CO CSCA

 X-----------X------X------X---------------X---------------X---------------X--X
    ITERACAO          FREQ.  ERRO MAX BARRA  ERRO MAX BARRA  ERRO MAX  CONV    
  FC  P  Q  V  M.O.   (Hz)       MW    NUM.     Mvar   NUM.  TENSAO %  NUM. FM 
 X--X--X--X--X------X------X---------X-----X---------X-----X---------X-----X--X

      1  1    1.0000 60.000   1125.63   933      0.01   939
      2  2    1.0000 60.000     10.73   938     16.92   938
      3  3    1.0000 60.000      0.21   895      0.04   939
 ................................................................




 CONVERGENCIA FINAL

 X-----------X------X------X---------------X---------------X---------------X
    ITERACAO          FREQ. ERRO MAX BARRA  ERRO MAX BARRA  ERRO MAX  CONV  
  FC  P  Q  V  M.O.   (Hz)      MW    NUM.     Mvar   NUM.  TENSAO %  NUM.  
 X--X--X--X--X------X------X---------X-----X---------X-----X---------X-----X

   0                             0.00     0      0.00     0
      3  3  0 1.0000 60.000      0.00   960      0.00   960     0.000     0
CEPEL - Centro de Pesquisas de Energia Eletrica - ANAREDE V11.05.05

 Caso_Base_Leonardo_Confiabilidade_Primeira_Ordem                                

 CONTINGENCIA    7  PRIORIDADE  1 Contingência de 933 para 955                  

 CIRCUITO da Barra   933 AREIA--PR525  p/ Barra   955 CNOVOS-SC525 Circ  1 (DESLIGAR)

 RELATORIO DE SHUNT COM CHAVEAMENTO AUTOMATICO

 X------------------X------------------X-----X--------------------X----X------X--X
     BARRA SHUNT      BARRA CONTROLADA         TENSAO CONTROLADA       SHUNT     
  NUM.      NOME     NUM.      NOME       TP  MINIMA ATUAL  MAXIMA CONT  Mvar  ST
 X-----X------------X-----X------------X-----X------X------X------X----X------X--X

    955 CNOVOS-SC525   955 CNOVOS-SC525 DISC   0.970  1.010  1.040 CENT   -0.0  
CEPEL - Centro de Pesquisas de Energia Eletrica - ANAREDE V11.05.05

 Caso_Base_Leonardo_Confiabilidade_Primeira_Ordem                                

 CONTINGENCIA    7  PRIORIDADE  1 Contingência de 933 para 955                  

 CIRCUITO da Barra   933 AREIA--PR525  p/ Barra   955 CNOVOS-SC525 Circ  1 (DESLIGAR)

 RELATORIO DE GERADOR * AREA   1 *                                  525

 X------------X------X-----------------------X----X------X-------X
     BARRA     TENSAO         GERACAO         LIM. PARTIC  BARRA
  NUM.    TIPO   MOD     MIN     MW      MAX   MW    GER  CONTROL
      NOME       ANG     MIN    Mvar     MAX  Mvar  EQUIV   MVA
 X------------X------X-------X-------X-------X----X------X-------X

    856      1  1.018     0.0   705.6  1260.0         0.0     856
  SEGRED-PR525   25.6  -465.0  -108.3   465.0         0.0   713.9
    897      1  1.015     0.0   693.6  1240.0         0.0     897
  SCAXIA-PR525   32.6  -465.0   -24.5   465.0         0.0   694.0
    933      1  1.012     0.0   934.4  1676.0         0.0     933
  AREIA--PR525   23.7  -800.0    26.6   800.0         0.0   934.8
    955      2  1.010   -66.5   893.0  1760.0         0.0     955
  CNOVOS-SC525    0.0  -450.0  -170.9   450.0         0.0   909.2
    995      1  1.020     0.0   809.6  1450.0         0.0     995
  ITA-----0425    6.3  -580.0   239.1   580.0         0.0   844.2
   1030      1  1.016     0.0   631.9  1140.0         0.0    1030
  MACHAD-SC525    2.3  -570.0    25.4   570.0         0.0   632.4
   1060      1  1.023     0.0   792.0  1420.0         0.0    1060
  SSANTI-PR525   25.0  -525.0   245.4   525.0         0.0   829.1




 RELATORIO DE GERADOR * AREA   2 *                                  230

 X------------X------X-----------------------X----X------X-------X
     BARRA     TENSAO         GERACAO         LIM. PARTIC  BARRA
  NUM.    TIPO   MOD     MIN     MW      MAX   MW    GER  CONTROL
      NOME       ANG     MIN    Mvar     MAX  Mvar  EQUIV   MVA
 X------------X------X-------X-------X-------X----X------X-------X

    963      1  1.000     0.0   129.6   360.0         0.0     963
  MCLARO-RS230   -5.2   -80.0   -55.1    80.0         0.0   140.8
   1010      1  1.020     0.0   395.2 99999.0         0.0    1010
  JLAC-B-SC230   -2.8  -220.0    30.0   220.0         0.0   396.3
   1041      1  1.000     0.0   128.8   226.0         0.0    1041
  PFUNDO-RS230    7.3  -130.0    43.0   130.0         0.0   135.8
   1047      1  1.020     0.0   617.6  1078.0         0.0    1047
  SOSORIO-230    30.2  -450.0    18.8   450.0         0.0   617.9
CEPEL - Centro de Pesquisas de Energia Eletrica - ANAREDE V11.05.05

 Caso_Base_Leonardo_Confiabilidade_Primeira_Ordem                                

 CONTINGENCIA    7  PRIORIDADE  1 Contingência de 933 para 955                  

 CIRCUITO da Barra   933 AREIA--PR525  p/ Barra   955 CNOVOS-SC525 Circ  1 (DESLIGAR)

 RELATORIO DE TOTAIS DE AREA

 X----X--------X--------X--------X--------X--------X--------X--------X--------X
  AREA  GERACAO  INJ EQV   CARGA   ELO CC    SHUNT   EXPORT   IMPORT   PERDAS
  NUM.    MW/      MW/      MW/      MW/     Mvar/     MW/      MW/      MW/
         Mvar     Mvar     Mvar     Mvar     EQUIV    Mvar     Mvar     Mvar
 X----X--------X--------X--------X--------X--------X--------X--------X--------X

     1   5460.2      0.0   3100.0      0.0      0.0   5663.3   3528.5    225.4
          232.7      0.0    425.4      0.0      0.0   1493.0    156.0  -1529.7

     2   1271.2      0.0   7800.0      0.0     98.6      0.0   6622.1     93.3
           36.7      0.0   1914.4      0.0      0.0    142.1   1277.9    197.8

     3      0.0      0.0  -4500.1      0.0      0.0   5322.0    834.8     12.8
            0.0      0.0   1111.5      0.0      0.0    342.8    544.0   -910.3

 TOTAL   6731.4      0.0   6399.9      0.0     98.6  10985.3  10985.3    331.4
          269.4      0.0   3451.3      0.0      0.0   1977.9   1977.9  -2242.1


 MONITORACAO DE TENSAO

Não foram encontradas violações de tensao entre as barras monitoradas.


 MONITORACAO DE FLUXOS CORRIGIDOS PELA TENSAO - MFCT

 Não foram encontradas violações de fluxo entre os circuitos monitorados
CEPEL - Centro de Pesquisas de Energia Eletrica - ANAREDE V11.05.05

 Caso_Base_Leonardo_Confiabilidade_Primeira_Ordem                                

 CONTINGENCIA    8  PRIORIDADE  1 Contingência de 933 para 959                  

 CIRCUITO da Barra   933 AREIA--PR525  p/ Barra   959 CURITI-PR525 Circ  1 (DESLIGAR)

 RELATORIO DE CONVERGENCIA

 OPCOES ATIVADAS: QLIM CTAP NEWT MOCT MOCG MOCF RCVG RMON RILH 80CO CSCA

 X-----------X------X------X---------------X---------------X---------------X--X
    ITERACAO          FREQ.  ERRO MAX BARRA  ERRO MAX BARRA  ERRO MAX  CONV    
  FC  P  Q  V  M.O.   (Hz)       MW    NUM.     Mvar   NUM.  TENSAO %  NUM. FM 
 X--X--X--X--X------X------X---------X-----X---------X-----X---------X-----X--X

      1  1    1.0000 60.000    727.92   933     95.29   959
      2  2    1.0000 60.000     22.56   959     24.12   895
      3  3    1.0000 60.000      0.65   895      0.09   895
      4  4    1.0000 60.000      4.40  1015     50.54   895
      5  5    1.0000 60.000     11.70   895     12.96   814
      6  6    1.0000 60.000      0.11   895      0.05   814
      7  7    1.0000 60.000      0.00   895      0.00   814
      8  8    1.0000 60.000      0.00   959     40.07  -814
      9  9    1.0000 60.000      0.36   895      0.35   814
 ................................................................




 CONVERGENCIA FINAL

 X-----------X------X------X---------------X---------------X---------------X
    ITERACAO          FREQ. ERRO MAX BARRA  ERRO MAX BARRA  ERRO MAX  CONV  
  FC  P  Q  V  M.O.   (Hz)      MW    NUM.     Mvar   NUM.  TENSAO %  NUM.  
 X--X--X--X--X------X------X---------X-----X---------X-----X---------X-----X

   0                             0.00     0      0.00     0
      9  9  0 1.0000 60.000      0.00   895      0.00   814     0.000     0
CEPEL - Centro de Pesquisas de Energia Eletrica - ANAREDE V11.05.05

 Caso_Base_Leonardo_Confiabilidade_Primeira_Ordem                                

 CONTINGENCIA    8  PRIORIDADE  1 Contingência de 933 para 959                  

 CIRCUITO da Barra   933 AREIA--PR525  p/ Barra   959 CURITI-PR525 Circ  1 (DESLIGAR)

 RELATORIO DE SHUNT COM CHAVEAMENTO AUTOMATICO

 X------------------X------------------X-----X--------------------X----X------X--X
     BARRA SHUNT      BARRA CONTROLADA         TENSAO CONTROLADA       SHUNT     
  NUM.      NOME     NUM.      NOME       TP  MINIMA ATUAL  MAXIMA CONT  Mvar  ST
 X-----X------------X-----X------------X-----X------X------X------X----X------X--X

    814 BATEIAS-230    895 BATEIA-PR525 DISC   0.960  0.979  1.020 CENT  150.0  
    955 CNOVOS-SC525   955 CNOVOS-SC525 DISC   0.970  1.010  1.040 CENT   -0.0  
CEPEL - Centro de Pesquisas de Energia Eletrica - ANAREDE V11.05.05

 Caso_Base_Leonardo_Confiabilidade_Primeira_Ordem                                

 CONTINGENCIA    8  PRIORIDADE  1 Contingência de 933 para 959                  

 CIRCUITO da Barra   933 AREIA--PR525  p/ Barra   959 CURITI-PR525 Circ  1 (DESLIGAR)

 RELATORIO DE GERADOR * AREA   1 *                                  525

 X------------X------X-----------------------X----X------X-------X
     BARRA     TENSAO         GERACAO         LIM. PARTIC  BARRA
  NUM.    TIPO   MOD     MIN     MW      MAX   MW    GER  CONTROL
      NOME       ANG     MIN    Mvar     MAX  Mvar  EQUIV   MVA
 X------------X------X-------X-------X-------X----X------X-------X

    856      1  1.018     0.0   705.6  1260.0         0.0     856
  SEGRED-PR525   18.2  -465.0   -92.8   465.0         0.0   711.7
    897      1  1.015     0.0   693.6  1240.0         0.0     897
  SCAXIA-PR525   26.3  -465.0   -27.7   465.0         0.0   694.2
    933      1  1.012     0.0   934.4  1676.0         0.0     933
  AREIA--PR525   14.9  -800.0    32.3   800.0         0.0   935.0
    955      2  1.010   -66.5   864.9  1760.0         0.0     955
  CNOVOS-SC525   -0.0  -450.0   -88.2   450.0         0.0   869.4
    995      1  1.020     0.0   809.6  1450.0         0.0     995
  ITA-----0425    3.8  -580.0     4.3   580.0         0.0   809.6
   1030      1  1.016     0.0   631.9  1140.0         0.0    1030
  MACHAD-SC525    1.7  -570.0    -4.2   570.0         0.0   631.9
   1060      1  1.023     0.0   792.0  1420.0         0.0    1060
  SSANTI-PR525   19.0  -525.0    75.7   525.0         0.0   795.6




 RELATORIO DE GERADOR * AREA   2 *                                  230

 X------------X------X-----------------------X----X------X-------X
     BARRA     TENSAO         GERACAO         LIM. PARTIC  BARRA
  NUM.    TIPO   MOD     MIN     MW      MAX   MW    GER  CONTROL
      NOME       ANG     MIN    Mvar     MAX  Mvar  EQUIV   MVA
 X------------X------X-------X-------X-------X----X------X-------X

    963      1  1.000     0.0   129.6   360.0         0.0     963
  MCLARO-RS230   -7.2   -80.0   -63.0    80.0         0.0   144.1
   1010      1  1.020     0.0   395.2 99999.0         0.0    1010
  JLAC-B-SC230   -6.8  -220.0    29.7   220.0         0.0   396.3
   1041      1  1.000     0.0   128.8   226.0         0.0    1041
  PFUNDO-RS230    3.2  -130.0    22.8   130.0         0.0   130.8
   1047      1  1.020     0.0   617.6  1078.0         0.0    1047
  SOSORIO-230    23.6  -450.0    13.2   450.0         0.0   617.7
CEPEL - Centro de Pesquisas de Energia Eletrica - ANAREDE V11.05.05

 Caso_Base_Leonardo_Confiabilidade_Primeira_Ordem                                

 CONTINGENCIA    8  PRIORIDADE  1 Contingência de 933 para 959                  

 CIRCUITO da Barra   933 AREIA--PR525  p/ Barra   959 CURITI-PR525 Circ  1 (DESLIGAR)

 RELATORIO DE TOTAIS DE AREA

 X----X--------X--------X--------X--------X--------X--------X--------X--------X
  AREA  GERACAO  INJ EQV   CARGA   ELO CC    SHUNT   EXPORT   IMPORT   PERDAS
  NUM.    MW/      MW/      MW/      MW/     Mvar/     MW/      MW/      MW/
         Mvar     Mvar     Mvar     Mvar     EQUIV    Mvar     Mvar     Mvar
 X----X--------X--------X--------X--------X--------X--------X--------X--------X

     1   5432.1      0.0   3100.0      0.0      0.0   5839.6   3715.5    208.0
         -100.7      0.0    425.4      0.0      0.0   1314.4    142.1  -1698.3

     2   1271.2      0.0   7800.0      0.0     99.4      0.0   6608.9     80.1
            2.7      0.0   1914.4      0.0      0.0    197.1   1143.8    127.4

     3      0.0      0.0  -4500.1      0.0      0.0   5517.6   1032.8     15.3
            0.0      0.0   1111.5      0.0      0.0    233.0    458.6   -885.9

 TOTAL   6703.3      0.0   6399.9      0.0     99.4  11357.1  11357.1    303.3
          -98.0      0.0   3451.3      0.0      0.0   1744.5   1744.5  -2456.9


 MONITORACAO DE TENSAO

Não foram encontradas violações de tensao entre as barras monitoradas.


 MONITORACAO DE FLUXOS CORRIGIDOS PELA TENSAO - MFCT

 Não foram encontradas violações de fluxo entre os circuitos monitorados
CEPEL - Centro de Pesquisas de Energia Eletrica - ANAREDE V11.05.05

 Caso_Base_Leonardo_Confiabilidade_Primeira_Ordem                                

 CONTINGENCIA    9  PRIORIDADE  1 Contingência de 934 para 960                  

 CIRCUITO da Barra   934 AREIA-230     p/ Barra   960 CURITI-PR230 Circ  1 (DESLIGAR)

 RELATORIO DE CONVERGENCIA

 OPCOES ATIVADAS: QLIM CTAP NEWT MOCT MOCG MOCF RCVG RMON RILH 80CO CSCA

 X-----------X------X------X---------------X---------------X---------------X--X
    ITERACAO          FREQ.  ERRO MAX BARRA  ERRO MAX BARRA  ERRO MAX  CONV    
  FC  P  Q  V  M.O.   (Hz)       MW    NUM.     Mvar   NUM.  TENSAO %  NUM. FM 
 X--X--X--X--X------X------X---------X-----X---------X-----X---------X-----X--X

      1  1    1.0000 60.000     86.41   934     26.57   934
      2  2    1.0000 60.000      0.18   960      0.39   934
 ................................................................




 CONVERGENCIA FINAL

 X-----------X------X------X---------------X---------------X---------------X
    ITERACAO          FREQ. ERRO MAX BARRA  ERRO MAX BARRA  ERRO MAX  CONV  
  FC  P  Q  V  M.O.   (Hz)      MW    NUM.     Mvar   NUM.  TENSAO %  NUM.  
 X--X--X--X--X------X------X---------X-----X---------X-----X---------X-----X

   0                             0.00     0      0.00     0
      2  2  0 1.0000 60.000      0.00   895      0.00   895     0.000     0
CEPEL - Centro de Pesquisas de Energia Eletrica - ANAREDE V11.05.05

 Caso_Base_Leonardo_Confiabilidade_Primeira_Ordem                                

 CONTINGENCIA    9  PRIORIDADE  1 Contingência de 934 para 960                  

 CIRCUITO da Barra   934 AREIA-230     p/ Barra   960 CURITI-PR230 Circ  1 (DESLIGAR)

 RELATORIO DE GERADOR * AREA   1 *                                  525

 X------------X------X-----------------------X----X------X-------X
     BARRA     TENSAO         GERACAO         LIM. PARTIC  BARRA
  NUM.    TIPO   MOD     MIN     MW      MAX   MW    GER  CONTROL
      NOME       ANG     MIN    Mvar     MAX  Mvar  EQUIV   MVA
 X------------X------X-------X-------X-------X----X------X-------X

    856      1  1.018     0.0   705.6  1260.0         0.0     856
  SEGRED-PR525   16.7  -465.0   -87.3   465.0         0.0   711.0
    897      1  1.015     0.0   693.6  1240.0         0.0     897
  SCAXIA-PR525   25.2  -465.0   -27.1   465.0         0.0   694.1
    933      1  1.012     0.0   934.4  1676.0         0.0     933
  AREIA--PR525   13.2  -800.0  -145.1   800.0         0.0   945.6
    955      2  1.010   -66.5   843.3  1760.0         0.0     955
  CNOVOS-SC525   -0.0  -450.0  -223.0   450.0         0.0   872.3
    995      1  1.020     0.0   809.6  1450.0         0.0     995
  ITA-----0425    3.3  -580.0   -36.5   580.0         0.0   810.4
   1030      1  1.016     0.0   631.9  1140.0         0.0    1030
  MACHAD-SC525    1.6  -570.0    -7.7   570.0         0.0   632.0
   1060      1  1.023     0.0   792.0  1420.0         0.0    1060
  SSANTI-PR525   17.8  -525.0    50.2   525.0         0.0   793.6




 RELATORIO DE GERADOR * AREA   2 *                                  230

 X------------X------X-----------------------X----X------X-------X
     BARRA     TENSAO         GERACAO         LIM. PARTIC  BARRA
  NUM.    TIPO   MOD     MIN     MW      MAX   MW    GER  CONTROL
      NOME       ANG     MIN    Mvar     MAX  Mvar  EQUIV   MVA
 X------------X------X-------X-------X-------X----X------X-------X

    963      1  1.000     0.0   129.6   360.0         0.0     963
  MCLARO-RS230   -7.4   -80.0   -64.3    80.0         0.0   144.7
   1010      1  1.020     0.0   395.2 99999.0         0.0    1010
  JLAC-B-SC230   -5.4  -220.0    31.4   220.0         0.0   396.4
   1041      1  1.000     0.0   128.8   226.0         0.0    1041
  PFUNDO-RS230    2.7  -130.0    19.9   130.0         0.0   130.3
   1047      1  1.020     0.0   617.6  1078.0         0.0    1047
  SOSORIO-230    22.7  -450.0    11.1   450.0         0.0   617.7
CEPEL - Centro de Pesquisas de Energia Eletrica - ANAREDE V11.05.05

 Caso_Base_Leonardo_Confiabilidade_Primeira_Ordem                                

 CONTINGENCIA    9  PRIORIDADE  1 Contingência de 934 para 960                  

 CIRCUITO da Barra   934 AREIA-230     p/ Barra   960 CURITI-PR230 Circ  1 (DESLIGAR)

 RELATORIO DE TOTAIS DE AREA

 X----X--------X--------X--------X--------X--------X--------X--------X--------X
  AREA  GERACAO  INJ EQV   CARGA   ELO CC    SHUNT   EXPORT   IMPORT   PERDAS
  NUM.    MW/      MW/      MW/      MW/     Mvar/     MW/      MW/      MW/
         Mvar     Mvar     Mvar     Mvar     EQUIV    Mvar     Mvar     Mvar
 X----X--------X--------X--------X--------X--------X--------X--------X--------X

     1   5410.5      0.0   3100.0      0.0      0.0   5482.5   3364.3    192.3
         -476.6      0.0    425.4      0.0      0.0   1486.8    143.1  -2245.6

     2   1271.2      0.0   7800.0      0.0     99.5      0.0   6602.1     73.3
           -1.8      0.0   1914.4      0.0      0.0    143.1   1252.1    133.1

     3      0.0      0.0  -4500.1      0.0      0.0   5158.3    674.3     16.1
            0.0      0.0   1111.5      0.0      0.0    327.7    562.4   -876.8

 TOTAL   6681.7      0.0   6399.9      0.0     99.5  10640.8  10640.8    281.7
         -478.4      0.0   3451.3      0.0      0.0   1957.6   1957.6  -2989.2


 MONITORACAO DE TENSAO

Não foram encontradas violações de tensao entre as barras monitoradas.


 MONITORACAO DE FLUXOS CORRIGIDOS PELA TENSAO - MFCT

 Não foram encontradas violações de fluxo entre os circuitos monitorados
CEPEL - Centro de Pesquisas de Energia Eletrica - ANAREDE V11.05.05

 Caso_Base_Leonardo_Confiabilidade_Primeira_Ordem                                

 CONTINGENCIA   10  PRIORIDADE  1 Contingência de 934 para 1047                 

 CIRCUITO da Barra   934 AREIA-230     p/ Barra  1047 SOSORIO-230  Circ  1 (DESLIGAR)

 RELATORIO DE CONVERGENCIA

 OPCOES ATIVADAS: QLIM CTAP NEWT MOCT MOCG MOCF RCVG RMON RILH 80CO CSCA

 X-----------X------X------X---------------X---------------X---------------X--X
    ITERACAO          FREQ.  ERRO MAX BARRA  ERRO MAX BARRA  ERRO MAX  CONV    
  FC  P  Q  V  M.O.   (Hz)       MW    NUM.     Mvar   NUM.  TENSAO %  NUM. FM 
 X--X--X--X--X------X------X---------X-----X---------X-----X---------X-----X--X

      1  1    1.0000 60.000    121.88  1047      9.86   934
      2  2    1.0000 60.000      0.36   934      1.27   934
      3  3    1.0000 60.000      0.00   933      0.00   934
 ................................................................




 CONVERGENCIA FINAL

 X-----------X------X------X---------------X---------------X---------------X
    ITERACAO          FREQ. ERRO MAX BARRA  ERRO MAX BARRA  ERRO MAX  CONV  
  FC  P  Q  V  M.O.   (Hz)      MW    NUM.     Mvar   NUM.  TENSAO %  NUM.  
 X--X--X--X--X------X------X---------X-----X---------X-----X---------X-----X

   0                             0.00     0      0.00     0
      3  3  0 1.0000 60.000      0.00  2458      0.00  2458     0.000     0
CEPEL - Centro de Pesquisas de Energia Eletrica - ANAREDE V11.05.05

 Caso_Base_Leonardo_Confiabilidade_Primeira_Ordem                                

 CONTINGENCIA   10  PRIORIDADE  1 Contingência de 934 para 1047                 

 CIRCUITO da Barra   934 AREIA-230     p/ Barra  1047 SOSORIO-230  Circ  1 (DESLIGAR)

 RELATORIO DE GERADOR * AREA   1 *                                  525

 X------------X------X-----------------------X----X------X-------X
     BARRA     TENSAO         GERACAO         LIM. PARTIC  BARRA
  NUM.    TIPO   MOD     MIN     MW      MAX   MW    GER  CONTROL
      NOME       ANG     MIN    Mvar     MAX  Mvar  EQUIV   MVA
 X------------X------X-------X-------X-------X----X------X-------X

    856      1  1.018     0.0   705.6  1260.0         0.0     856
  SEGRED-PR525   16.6  -465.0   -84.0   465.0         0.0   710.6
    897      1  1.015     0.0   693.6  1240.0         0.0     897
  SCAXIA-PR525   25.4  -465.0   -18.4   465.0         0.0   693.8
    933      1  1.012     0.0   934.4  1676.0         0.0     933
  AREIA--PR525   12.8  -800.0  -172.0   800.0         0.0   950.1
    955      2  1.010   -66.5   846.8  1760.0         0.0     955
  CNOVOS-SC525   -0.0  -450.0  -243.6   450.0         0.0   881.1
    995      1  1.020     0.0   809.6  1450.0         0.0     995
  ITA-----0425    3.3  -580.0   -39.4   580.0         0.0   810.6
   1030      1  1.016     0.0   631.9  1140.0         0.0    1030
  MACHAD-SC525    1.6  -570.0    -7.7   570.0         0.0   632.0
...